[General]
sim-time-limit = 5000000s

description = "low job arrival rate"
network = SingleQueue
**.source.interarrivalTime = exponential(3.0303s)
**.source1.interarrivalTime = exponential(0.3367s)
**.source.serviceTime = exponential(10s)
**.source1.serviceTime = exponential(1s)
**.fifo.bufferSize = 512
**.source.requiredResource = 64
**.source1.requiredResource = 1
**.sink.msgProcessedFromSource.record=count
**.sink.msgProcessedFromSource1.record=count
**.fifo.resourceCapacity = 256
**.fifo.checkInterval = 0.25s
**.fifo.avgResourceOccupation.record=scalar

**.fifo.avgWaitTimeFromSourceSignal.record=scalar
**.fifo.avgWaitTimeFromSource1Signal.record=scalar
repeat=30